Version 4
SHEET 1 1104 696
WIRE 112 32 80 32
WIRE 112 96 112 32
WIRE 112 96 64 96
WIRE 64 176 64 96
WIRE 48 192 -32 192
WIRE 160 208 128 208
WIRE 176 208 160 208
WIRE -32 224 -32 192
WIRE 48 224 -32 224
WIRE -32 256 -32 224
WIRE 64 256 64 240
WIRE -32 304 -32 256
WIRE 32 304 -32 304
WIRE 160 304 160 208
WIRE 160 304 112 304
WIRE -32 320 -32 304
WIRE -32 416 -32 384
FLAG -32 416 0
FLAG 0 32 0
FLAG -32 256 in
FLAG 64 256 0
FLAG 176 208 out
SYMBOL voltage 96 32 R90
WINDOW 0 -32 56 VBottom 2
WINDOW 3 32 56 VTop 2
SYMATTR InstName V1
SYMATTR Value 10
SYMBOL cap -48 320 R0
SYMATTR InstName C2
SYMATTR Value 0.01µ
SYMBOL res 128 288 R90
WINDOW 0 0 56 VBottom 2
WINDOW 3 38 59 VTop 2
SYMATTR InstName R1
SYMATTR Value 1k
SYMBOL NAND 80 208 R0
WINDOW 3 0 0 Left 0
SYMATTR Value CD4093B
SYMATTR InstName U1
TEXT -264 464 Left 2 !.inc "C:\\Users\\USER\\Desktop\\UW\\courses\\20 AU\\EE 331\\Lab\\Library\\CD4007_PMOS.LIB"\n.inc "C:\\Users\\USER\\Desktop\\UW\\courses\\20 AU\\EE 331\\Lab\\Library\\CD4007_NMOS.LIB"
TEXT -264 512 Left 2 !.tran 50ms\n.ic V(in)= 10
TEXT -272 568 Left 2 !.inc "C:\\Users\\USER\\Desktop\\UW\\courses\\20 AU\\EE 331\\Lab\\Library\\CD4093B.LIB"
